*SPEF "1481-1998"
*DESIGN "CHIP"
*DATE "Wed May 20 10:30:59 2020"
*VENDOR "Synopsys, Inc."
*PROGRAM "icc2 /user/cad/synopsys/synthesis/2019.12/icc2/linux64/nwtn/bin/icc2_exec"
*VERSION "P-2019.03-SP5 Oct 24, 2019"
*DESIGN_FLOW "ICC2 SPEF DR"
*DIVIDER /
*DELIMITER :
*T_UNIT 1 NS
*C_UNIT 1 PF
*R_UNIT 1 KOHM
*L_UNIT 1 HENRY

// XY_UNIT 1 UM
// PARASITIC_TECH max at 125.000 degree

*NAME_MAP
*1 Y[9]
*2 Y[8]
*3 Y[7]
*4 Y[6]
*5 Y[5]
*6 Y[4]
*7 Y[3]
*8 Y[2]
*9 Y[1]
*10 Y[0]
*11 X[7]
*12 X[6]
*13 X[5]
*14 X[4]
*15 X[3]
*16 X[2]
*17 X[1]
*18 X[0]
*19 reset
*20 clk
*21 VDD
*22 VSS
*23 ipad_clk
*24 ipad_reset
*25 ipad_X7
*26 ipad_X6
*27 ipad_X5
*28 ipad_X4
*29 ipad_X3
*30 ipad_X2
*31 ipad_X1
*32 ipad_X0
*33 opad_Y9
*34 opad_Y8
*35 opad_Y7
*36 opad_Y6
*37 opad_Y5
*38 opad_Y4
*39 opad_Y3
*40 opad_Y2
*41 opad_Y1
*42 opad_Y0
*43 top/X8_reg_7_
*44 top/X8_reg_6_
*45 top/X8_reg_4_
*46 top/X8_reg_3_
*47 top/X7_reg_7_
*48 top/X6_reg_7_
*49 top/X5_reg_7_
*50 top/X4_reg_7_
*51 top/X3_reg_7_
*52 top/X2_reg_7_
*53 top/X1_reg_7_
*54 top/X7_reg_6_
*55 top/X6_reg_6_
*56 top/X5_reg_6_
*57 top/X4_reg_6_
*58 top/X3_reg_6_
*59 top/X2_reg_6_
*60 top/X1_reg_6_
*61 top/X7_reg_5_
*62 top/X6_reg_5_
*63 top/X5_reg_5_
*64 top/X4_reg_5_
*65 top/X3_reg_5_
*66 top/X2_reg_5_
*67 top/X1_reg_5_
*68 top/X7_reg_4_
*69 top/X6_reg_4_
*70 top/X5_reg_4_
*71 top/X4_reg_4_
*72 top/X3_reg_4_
*73 top/X2_reg_4_
*74 top/X1_reg_4_
*75 top/X7_reg_3_
*76 top/X6_reg_3_
*77 top/X5_reg_3_
*78 top/X4_reg_3_
*79 top/X3_reg_3_
*80 top/X2_reg_3_
*81 top/X1_reg_3_
*82 top/S9_reg_11_
*83 top/S9_reg_10_
*84 top/S9_reg_9_
*85 top/S8_reg_9_
*86 top/S9_reg_8_
*87 top/S9_reg_7_
*88 top/S9_reg_6_
*89 top/S9_reg_5_
*90 top/S9_reg_4_
*91 top/S9_reg_3_
*92 top/S8_reg_2_
*93 top/S9_reg_0_
*94 top/S7_reg_11_
*95 top/S6_reg_11_
*96 top/S5_reg_11_
*97 top/S4_reg_11_
*98 top/S3_reg_11_
*99 top/S2_reg_11_
*100 top/S1_reg_11_
*101 top/S7_reg_10_
*102 top/S6_reg_10_
*103 top/S5_reg_10_
*104 top/S4_reg_10_
*105 top/S3_reg_10_
*106 top/S2_reg_10_
*107 top/S1_reg_10_
*108 top/S7_reg_9_
*109 top/S6_reg_9_
*110 top/S5_reg_9_
*111 top/S4_reg_9_
*112 top/S3_reg_9_
*113 top/S2_reg_9_
*114 top/S6_reg_8_
*115 top/S5_reg_8_
*116 top/S1_reg_8_
*117 top/S5_reg_0_
*118 top/S1_reg_0_
*119 top/Xt_reg_11_
*120 top/Xt_reg_9_
*121 top/Xt_reg_8_
*122 top/S6_reg_0_
*123 top/S2_reg_0_
*124 top/S8_reg_8_
*125 top/S7_reg_8_
*126 top/S2_reg_8_
*127 top/S3_reg_8_
*128 top/S7_reg_0_
*129 top/S3_reg_0_
*130 top/S8_reg_0_
*131 top/S4_reg_0_
*132 top/S4_reg_8_
*133 top/Xt_reg_10_
*134 top/S7_reg_7_
*135 top/S7_reg_6_
*136 top/S7_reg_5_
*137 top/S7_reg_4_
*138 top/S7_reg_3_
*139 top/S6_reg_7_
*140 top/S6_reg_6_
*141 top/S6_reg_5_
*142 top/S6_reg_3_
*143 top/S5_reg_7_
*144 top/S5_reg_6_
*145 top/S5_reg_5_
*146 top/S5_reg_3_
*147 top/S4_reg_7_
*148 top/S4_reg_6_
*149 top/S4_reg_5_
*150 top/S4_reg_4_
*151 top/S4_reg_3_
*152 top/S3_reg_7_
*153 top/S3_reg_6_
*154 top/S3_reg_5_
*155 top/S3_reg_4_
*156 top/S3_reg_3_
*157 top/S2_reg_7_
*158 top/S2_reg_6_
*159 top/S2_reg_5_
*160 top/S2_reg_4_
*161 top/S2_reg_3_
*162 top/S1_reg_7_
*163 top/S1_reg_6_
*164 top/S1_reg_5_
*165 top/S1_reg_4_
*166 top/S1_reg_3_
*167 top/S3_reg_1_
*168 top/S1_reg_1_
*169 top/S8_reg_1_
*170 top/S4_reg_1_
*171 top/S2_reg_1_
*172 top/X1_d_reg_1_
*173 top/X1_d_reg_2_
*174 top/S6_reg_2_
*175 top/S6_reg_1_
*176 top/S4_reg_2_
*177 top/S2_reg_2_
*178 top/S7_reg_2_
*179 top/S7_reg_1_
*180 top/S5_reg_2_
*181 top/S5_reg_1_
*182 top/S3_reg_2_
*183 top/S1_reg_2_
*184 top/S6_reg_4_
*185 top/S5_reg_4_
*186 top/S8_reg_7_
*187 top/S8_reg_6_
*188 top/S8_reg_5_
*189 top/S8_reg_4_
*190 top/S8_reg_3_
*191 top/X1_d_reg_4_
*192 top/X1_d_reg_3_
*193 top/X1_d_reg_7_
*194 top/X1_d_reg_5_
*195 top/X8_reg_5_
*196 top/S8_reg_11_
*197 top/S8_reg_10_
*198 top/S1_reg_9_
*199 top/U3
*200 top/U4
*201 top/U5
*202 top/U6
*203 top/U7
*204 top/U8
*205 top/U9
*206 top/U10
*207 top/U12
*208 top/U13
*209 top/U16
*210 top/U17
*211 top/U18
*212 top/U19
*213 top/U20
*214 top/U21
*215 top/U22
*216 top/U23
*217 top/U24
*218 top/U25
*219 top/U26
*220 top/U27
*221 top/U28
*222 top/U29
*223 top/U30
*224 top/U31
*225 top/U32
*226 top/U33
*227 top/U35
*228 top/U36
*229 top/U37
*230 top/U38
*231 top/U39
*232 top/U40
*233 top/U41
*234 top/U42
*235 top/U43
*236 top/U44
*237 top/U46
*238 top/U47
*239 top/U48
*240 top/U49
*241 top/U50
*242 top/U52
*243 top/U53
*244 top/U54
*245 top/U55
*246 top/U56
*247 top/U57
*248 top/U59
*249 top/U60
*250 top/U61
*251 top/U62
*252 top/U63
*253 top/U64
*254 top/U65
*255 top/U67
*256 top/U68
*257 top/U69
*258 top/U70
*259 top/U71
*260 top/U73
*261 top/U74
*262 top/U76
*263 top/U77
*264 top/U78
*265 top/U80
*266 top/U81
*267 top/U83
*268 top/U84
*269 top/U86
*270 top/U88
*271 top/U89
*272 top/U91
*273 top/U92
*274 top/U93
*275 top/U94
*276 top/U95
*277 top/U96
*278 top/U98
*279 top/U99
*280 top/U101
*281 top/U102
*282 top/U103
*283 top/U104
*284 top/U105
*285 top/U107
*286 top/U108
*287 top/U109
*288 top/U111
*289 top/U113
*290 top/U114
*291 top/U115
*292 top/U117
*293 top/U118
*294 top/U119
*295 top/U120
*296 top/U121
*297 top/U122
*298 top/U123
*299 top/U124
*300 top/U125
*301 top/U126
*302 top/U127
*303 top/U128
*304 top/U129
*305 top/U130
*306 top/U131
*307 top/U132
*308 top/U133
*309 top/U134
*310 top/U135
*311 top/U136
*312 top/U137
*313 ropt_d_inst_2637
*314 top/U143
*315 top/U148
*316 top/U149
*317 top/U150
*318 top/U151
*319 top/U153
*320 top/U155
*321 top/U156
*322 top/U161
*323 top/U164
*324 top/ZBUF_46_inst_2631
*325 top/U172
*326 xofiller!FILL64!x2500000y2500000
*327 top/U179
*328 xofiller!FILL64!x2679200y2500000
*329 xofiller!FILL64!x2858400y2500000
*330 xofiller!FILL64!x3037600y2500000
*331 xofiller!FILL64!x3216800y2500000
*332 top/U185
*333 top/U187
*334 top/U189
*335 top/U190
*336 top/U191
*337 top/U192
*338 top/U196
*339 top/U197
*340 top/U198
*341 top/U200
*342 xofiller!FILL64!x3396000y2500000
*343 xofiller!FILL64!x3575200y2500000
*344 xofiller!FILL64!x3754400y2500000
*345 xofiller!FILL64!x3933600y2500000
*346 xofiller!FILL64!x4112800y2500000
*347 xofiller!FILL64!x4292000y2500000
*348 xofiller!FILL64!x4471200y2500000
*349 xofiller!FILL16!x4650400y2500000
*350 top/U205
*351 top/U206
*352 top/U213
*353 top/U214
*354 top/U215
*355 top/U216
*356 top/U217
*357 top/U218
*358 top/U220
*359 top/U221
*360 top/U226
*361 top/U229
*362 xofiller!FILL1!x4695200y2500000
*363 xofiller!FILL64!x2500000y2525200
*364 xofiller!FILL64!x2679200y2525200
*365 xofiller!FILL64!x2858400y2525200
*366 top/U237
*367 xofiller!FILL64!x3037600y2525200
*368 xofiller!FILL64!x3216800y2525200
*369 xofiller!FILL64!x3396000y2525200
*370 xofiller!FILL64!x3575200y2525200
*371 top/U244
*372 xofiller!FILL64!x3754400y2525200
*373 xofiller!FILL64!x3933600y2525200
*374 xofiller!FILL64!x4112800y2525200
*375 xofiller!FILL64!x4292000y2525200
*376 top/U250
*377 top/U252
*378 top/U254
*379 top/U255
*380 top/U256
*381 top/U260
*382 top/U261
*383 top/U262
*384 top/U263
*385 top/U266
*386 top/U271
*387 top/U272
*388 top/U273
*389 top/U274
*390 top/U276
*391 top/U277
*392 top/U278
*393 top/U279
*394 top/U283
*395 top/U285
*396 top/U286
*397 top/U287
*398 top/U291
*399 top/U292
*400 top/U294
*401 top/U295
*402 top/U296
*403 top/U297
*404 top/U299
*405 top/U301
*406 top/U302
*407 top/U304
*408 top/U305
*409 top/U307
*410 top/U308
*411 top/U309
*412 top/U310
*413 top/U311
*414 top/U315
*415 top/U316
*416 top/U319
*417 top/U321
*418 top/U322
*419 top/U325
*420 top/U327
*421 top/U328
*422 top/U330
*423 top/U332
*424 top/U333
*425 top/U335
*426 top/U336
*427 top/U338
*428 top/U339
*429 top/U341
*430 top/U342
*431 top/U343
*432 top/U345
*433 top/U346
*434 top/U349
*435 top/U350
*436 top/U352
*437 top/U353
*438 top/U354
*439 top/U355
*440 top/U356
*441 top/U358
*442 top/U359
*443 top/U363
*444 top/U364
*445 top/U366
*446 top/U367
*447 top/U369
*448 top/U370
*449 top/U371
*450 top/U372
*451 top/U373
*452 top/U375
*453 top/U377
*454 top/U378
*455 top/U380
*456 top/U381
*457 top/U383
*458 top/U384
*459 top/U385
*460 top/U386
*461 top/U388
*462 top/U389
*463 top/U393
*464 top/U396
*465 top/U397
*466 top/U398
*467 top/U399
*468 top/U401
*469 top/U402
*470 top/U404
*471 top/U405
*472 top/U406
*473 top/U407
*474 top/U408
*475 top/U410
*476 top/U411
*477 top/U412
*478 top/U413
*479 top/U415
*480 top/U416
*481 top/U417
*482 top/U419
*483 top/U421
*484 top/U422
*485 top/U424
*486 top/U425
*487 top/U427
*488 top/U429
*489 top/U431
*490 top/U432
*491 top/U435
*492 top/U437
*493 top/U438
*494 top/U442
*495 top/U444
*496 top/U448
*497 top/U449
*498 top/U453
*499 top/U460
*500 top/U461
*501 top/U462
*502 top/U463
*503 top/U464
*504 top/U465
*505 top/U467
*506 top/U468
*507 top/U473
*508 top/U476
*509 top/U493
*510 top/U495
*511 top/U497
*512 top/U498
*513 top/U499
*514 top/U504
*515 top/U505
*516 top/U506
*517 top/U507
*518 top/U508
*519 top/U509
*520 top/U511
*521 top/U512
*522 top/U513
*523 top/U514
*524 top/U515
*525 top/U516
*526 top/U517
*527 top/U518
*528 top/U520
*529 top/U521
*530 top/U523
*531 top/U524
*532 top/U528
*533 top/U530
*534 top/U531
*535 top/U532
*536 top/U533
*537 top/U535
*538 top/U536
*539 xofiller!FILL64!x4471200y2525200
*540 xofiller!FILL16!x4650400y2525200
*541 xofiller!FILL1!x4695200y2525200
*542 xofiller!FILL64!x2500000y2550400
*543 xofiller!FILL64!x2679200y2550400
*544 xofiller!FILL64!x2858400y2550400
*545 xofiller!FILL64!x3037600y2550400
*546 xofiller!FILL64!x3216800y2550400
*547 top/U548
*548 top/U549
*549 top/U550
*550 top/U551
*551 top/U552
*552 top/U554
*553 top/U555
*554 top/U560
*555 top/U563
*556 xofiller!FILL64!x3396000y2550400
*557 xofiller!FILL64!x3575200y2550400
*558 xofiller!FILL64!x3754400y2550400
*559 xofiller!FILL64!x3933600y2550400
*560 xofiller!FILL64!x4112800y2550400
*561 xofiller!FILL64!x4292000y2550400
*562 xofiller!FILL64!x4471200y2550400
*563 xofiller!FILL16!x4650400y2550400
*564 top/U578
*565 xofiller!FILL1!x4695200y2550400
*566 xofiller!FILL64!x2500000y2575600
*567 xofiller!FILL64!x2679200y2575600
*568 xofiller!FILL64!x2858400y2575600
*569 top/U584
*570 top/U586
*571 top/U588
*572 top/U589
*573 top/U590
*574 top/U595
*575 top/U596
*576 top/U597
*577 top/U599
*578 top/U600
*579 top/U601
*580 top/U603
*581 top/U604
*582 top/U605
*583 top/U606
*584 top/U608
*585 top/U609
*586 top/U610
*587 top/U611
*588 top/U615
*589 top/U616
*590 top/U617
*591 top/U618
*592 top/U620
*593 top/U625
*594 top/U626
*595 top/U627
*596 top/U628
*597 top/U629
*598 top/U631
*599 top/U632
*600 top/U633
*601 top/U634
*602 top/U635
*603 top/U637
*604 top/U639
*605 top/U640
*606 top/U642
*607 top/U643
*608 top/U648
*609 top/U651
*610 top/U652
*611 top/U655
*612 top/U656
*613 top/U657
*614 top/U658
*615 top/U659
*616 top/U661
*617 top/U662
*618 top/U664
*619 top/U665
*620 top/U667
*621 top/U668
*622 top/U671
*623 top/U672
*624 top/U673
*625 top/U674
*626 top/U675
*627 top/U677
*628 top/U678
*629 top/U681
*630 top/U683
*631 top/U684
*632 top/U688
*633 top/U689
*634 top/U690
*635 top/U691
*636 top/U692
*637 top/U693
*638 top/U694
*639 top/U695
*640 top/U696
*641 top/U697
*642 top/U698
*643 top/U700
*644 top/U701
*645 top/U703
*646 top/U704
*647 top/U706
*648 top/U707
*649 top/U709
*650 top/U710
*651 top/U712
*652 top/U713
*653 top/U715
*654 top/U716
*655 top/U717
*656 top/U718
*657 top/U719
*658 top/U720
*659 top/U721
*660 top/U724
*661 top/U725
*662 top/U726
*663 top/U728
*664 top/U729
*665 top/U730
*666 top/U731
*667 top/U733
*668 top/U735
*669 top/U736
*670 top/U738
*671 top/U739
*672 top/U740
*673 top/U741
*674 top/U742
*675 top/U743
*676 top/U744
*677 top/U745
*678 top/U746
*679 top/U747
*680 top/U748
*681 top/U753
*682 top/U754
*683 top/U755
*684 top/U759
*685 top/U760
*686 top/U761
*687 top/U762
*688 top/U763
*689 top/U764
*690 top/U765
*691 top/U766
*692 top/U767
*693 top/U769
*694 top/U771
*695 top/U772
*696 top/U773
*697 top/U775
*698 top/U776
*699 top/U777
*700 top/U778
*701 top/U781
*702 top/U785
*703 top/U786
*704 top/U788
*705 top/U792
*706 top/U793
*707 top/U795
*708 top/U796
*709 top/U800
*710 top/U801
*711 top/ctmTdsLR_1_934
*712 top/U804
*713 top/U805
*714 top/U808
*715 top/U812
*716 top/ctmTdsLR_1_1086
*717 top/U818
*718 top/U819
*719 top/U820
*720 top/U821
*721 top/U822
*722 top/U826
*723 top/U827
*724 top/U830
*725 top/U831
*726 top/U832
*727 top/U838
*728 top/U841
*729 top/U842
*730 top/U843
*731 top/U844
*732 top/U845
*733 top/U848
*734 top/U849
*735 top/U850
*736 top/U851
*737 top/U852
*738 top/U853
*739 top/U854
*740 top/U857
*741 top/U858
*742 top/U860
*743 top/U862
*744 top/ctmTdsLR_1_941
*745 top/ctmTdsLR_1_968
*746 top/ctmTdsLR_1_969
*747 xofiller!FILL64!x3037600y2575600
*748 xofiller!FILL64!x3216800y2575600
*749 xofiller!FILL64!x3396000y2575600
*750 xofiller!FILL64!x3575200y2575600
*751 xofiller!FILL64!x3754400y2575600
*752 xofiller!FILL64!x3933600y2575600
*753 xofiller!FILL64!x4112800y2575600
*754 xofiller!FILL64!x4292000y2575600
*755 top/U879
*756 top/U880
*757 top/U881
*758 top/U882
*759 top/U884
*760 top/U886
*761 top/U887
*762 top/U892
*763 top/U895
*764 xofiller!FILL64!x4471200y2575600
*765 xofiller!FILL16!x4650400y2575600
*766 xofiller!FILL1!x4695200y2575600
*767 xofiller!FILL64!x2500000y2600800
*768 top/U904
*769 top/U906
*770 top/U907
*771 xofiller!FILL64!x2679200y2600800
*772 xofiller!FILL32!x2858400y2600800
*773 xofiller!FILL2!x2948000y2600800
*774 xofiller!FILL1!x2953600y2600800
*775 top/U913
*776 top/U914
*777 top/U915
*778 xofiller!FILL64!x2973200y2600800
*779 xofiller!FILL64!x3152400y2600800
*780 xofiller!FILL64!x3331600y2600800
*781 xofiller!FILL64!x3510800y2600800
*782 xofiller!FILL16!x3690000y2600800
*783 xofiller!FILL4!x3734800y2600800
*784 xofiller!FILL1!x3746000y2600800
*785 xofiller!FILL2!x3757200y2600800
*786 top/U921
*787 top/U922
*788 top/U929
*789 top/U930
*790 top/U932
*791 top/U934
*792 top/U935
*793 top/U940
*794 top/U943
*795 xofiller!FILL1!x3762800y2600800
*796 xofiller!FILL2!x3776800y2600800
*797 xofiller!FILL64!x3810400y2600800
*798 xofiller!FILL64!x3989600y2600800
*799 top/U952
*800 top/U954
*801 top/U955
*802 xofiller!FILL64!x4168800y2600800
*803 xofiller!FILL64!x4348000y2600800
*804 xofiller!FILL32!x4527200y2600800
*805 xofiller!FILL16!x4616800y2600800
*806 top/U961
*807 top/U962
*808 top/U963
*809 xofiller!FILL8!x4661600y2600800
*810 xofiller!FILL4!x4684000y2600800
*811 xofiller!FILL1!x4695200y2600800
*812 xofiller!FILL64!x2500000y2626000
*813 top/U976
*814 top/U978
*815 top/U979
*816 top/U980
*817 top/U984
*818 top/U985
*819 top/U986
*820 top/U987
*821 top/U990
*822 top/U992
*823 top/U993
*824 top/U994
*825 top/U995
*826 top/U996
*827 top/U997
*828 top/U999
*829 top/U1001
*830 top/U1002
*831 top/U1004
*832 top/U1005
*833 top/U1007
*834 top/U1008
*835 top/U1010
*836 top/U1012
*837 top/U1014
*838 top/U1015
*839 top/U1016
*840 top/U1017
*841 top/U1019
*842 top/U1022
*843 xofiller!FILL64!x2679200y2626000
*844 xofiller!FILL64!x2858400y2626000
*845 xofiller!FILL64!x3037600y2626000
*846 xofiller!FILL64!x3216800y2626000
*847 top/U1028
*848 top/U1029
*849 top/U1030
*850 top/U1033
*851 top/ctmTdsLR_1_1062
*852 top/U1036
*853 top/U1037
*854 top/U1039
*855 top/U1040
*856 top/U1041
*857 top/U1042
*858 top/U1044
*859 top/U1045
*860 top/U1046
*861 top/U1047
*862 top/U1048
*863 top/U1049
*864 top/U1050
*865 top/U1051
*866 top/U1055
*867 top/U1056
*868 top/U1057
*869 top/U1060
*870 top/U1061
*871 top/U1065
*872 top/U1066
*873 top/U1067
*874 top/U1068
*875 top/U1070
*876 top/U1072
*877 top/U1073
*878 top/U1074
*879 top/U1076
*880 top/U1077
*881 top/U1078
*882 top/U1079
*883 top/U1080
*884 top/U1081
*885 top/U1082
*886 top/U1083
*887 top/U1084
*888 top/U1086
*889 top/U1087
*890 top/U1088
*891 top/U1090
*892 top/U1092
*893 top/U1093
*894 top/U1095
*895 top/U1096
*896 top/U1098
*897 top/U1101
*898 top/U1102
*899 top/U1106
*900 top/U1107
*901 top/U1108
*902 top/U1109
*903 top/U1110
*904 top/U1112
*905 top/U1113
*906 top/U1115
*907 top/U1116
*908 top/U1118
*909 top/U1119
*910 top/U1120
*911 top/U1121
*912 top/U1122
*913 top/U1123
*914 top/U1124
*915 top/U1127
*916 top/U1130
*917 top/U1132
*918 top/U1134
*919 top/U1137
*920 top/U1138
*921 top/U1140
*922 top/U1141
*923 top/U1143
*924 top/U1144
*925 top/U1145
*926 top/U1146
*927 top/U1147
*928 top/U1148
*929 top/U1149
*930 top/U1150
*931 top/U1151
*932 top/U1152
*933 top/U1154
*934 top/U1155
*935 top/U1156
*936 top/U1157
*937 top/U1159
*938 top/U1160
*939 top/U1162
*940 top/U1165
*941 top/U1166
*942 top/U1168
*943 top/U1170
*944 top/U1171
*945 top/U1173
*946 top/U1174
*947 top/U1175
*948 top/U1176
*949 top/U1178
*950 top/U1179
*951 top/U1180
*952 top/U1181
*953 top/U1183
*954 top/U1191
*955 top/U1192
*956 top/U1193
*957 top/U1194
*958 top/U1195
*959 top/U1196
*960 top/U1197
*961 top/U1199
*962 top/U1200
*963 top/U1205
*964 top/U1207
*965 top/U1208
*966 top/U1213
*967 top/U1224
*968 top/U1225
*969 top/U1227
*970 top/U1230
*971 top/U1231
*972 top/U1235
*973 top/U1236
*974 top/U1237
*975 top/U1238
*976 top/U1241
*977 top/U1242
*978 top/U1243
*979 top/U1244
*980 top/U1245
*981 top/U1246
*982 top/U1247
*983 top/U1248
*984 top/U1250
*985 top/U1252
*986 top/U1253
*987 top/U1255
*988 top/U1256
*989 top/U1258
*990 top/U1260
*991 top/U1263
*992 top/U1264
*993 xofiller!FILL32!x3396000y2626000
*994 xofiller!FILL4!x3485600y2626000
*995 xofiller!FILL2!x3496800y2626000
*996 xofiller!FILL1!x3502400y2626000
*997 xofiller!FILL32!x3550000y2626000
*998 xofiller!FILL16!x3639600y2626000
*999 xofiller!FILL4!x3684400y2626000
*1000 xofiller!FILL2!x3695600y2626000
*1001 top/U1270
*1002 top/U1271
*1003 top/U1278
*1004 top/U1283
*1005 top/U1286
*1006 top/U1289
*1007 xofiller!FILL4!x3709600y2626000
*1008 xofiller!FILL1!x3720800y2626000
*1009 xofiller!FILL8!x3734800y2626000
*1010 xofiller!FILL8!x3771200y2626000
*1011 xofiller!FILL1!x3793600y2626000
*1012 xofiller!FILL64!x3841200y2626000
*1013 xofiller!FILL64!x4020400y2626000
*1014 xofiller!FILL64!x4199600y2626000
*1015 top/U1302
*1016 top/U1304
*1017 xofiller!FILL64!x4378800y2626000
*1018 xofiller!FILL32!x4558000y2626000
*1019 xofiller!FILL16!x4647600y2626000
*1020 xofiller!FILL2!x4692400y2626000
*1021 top/U1310
*1022 top/U1311
*1023 top/U1312
*1024 top/U1313
*1025 top/U1315
*1026 top/U1316
*1027 top/U1317
*1028 top/U1318
*1029 top/U1319
*1030 top/U1323
*1031 top/U1324
*1032 top/U1325
*1033 top/U1327
*1034 top/U1328
*1035 top/U1329
*1036 top/U1330
*1037 top/U1331
*1038 top/U1332
*1039 top/U1333
*1040 top/U1334
*1041 top/U1335
*1042 top/U1336
*1043 top/U1337
*1044 top/U1338
*1045 top/U1340
*1046 top/U1341
*1047 top/U1342
*1048 top/U1343
*1049 top/U1345
*1050 top/U1346
*1051 top/U1350
*1052 top/U1352
*1053 top/U1353
*1054 top/U1354
*1055 top/U1355
*1056 top/U1358
*1057 top/U1359
*1058 top/U1360
*1059 top/U1361
*1060 top/U1363
*1061 top/U1365
*1062 top/U1366
*1063 top/U1367
*1064 top/U1368
*1065 top/U1369
*1066 top/U1370
*1067 top/U1371
*1068 top/U1373
*1069 top/U1374
*1070 top/U1375
*1071 top/U1376
*1072 top/U1377
*1073 top/U1379
*1074 top/U1380
*1075 top/U1382
*1076 top/U1383
*1077 top/U1385
*1078 top/U1386
*1079 top/U1391
*1080 top/U1395
*1081 top/U1398
*1082 top/U1399
*1083 top/U1400
*1084 top/U1402
*1085 top/U1403
*1086 top/U1404
*1087 top/U1406
*1088 top/ctmTdsLR_1_1088
*1089 xofiller!FILL64!x2500000y2651200
*1090 top/U1409
*1091 top/U1410
*1092 top/U1411
*1093 top/U1412
*1094 top/U1414
*1095 top/U1415
*1096 top/U1416
*1097 top/U1417
*1098 top/U1418
*1099 top/U1419
*1100 top/U1420
*1101 top/U1421
*1102 top/U1422
*1103 top/U1423
*1104 top/U1424
*1105 top/U1425
*1106 top/U1426
*1107 top/U1427
*1108 top/U1430
*1109 top/U1431
*1110 top/U1433
*1111 top/ctmTdsLR_1_995
*1112 top/ctmTdsLR_1_991
*1113 top/U1435
*1114 top/U1436
*1115 top/U1437
*1116 top/U1439
*1117 top/U1440
*1118 top/U1441
*1119 top/U1443
*1120 top/U1444
*1121 top/U1445
*1122 top/U1446
*1123 top/U1447
*1124 top/U1448
*1125 top/U1449
*1126 top/U1450
*1127 top/U1452
*1128 top/U1453
*1129 top/U1454
*1130 top/U1456
*1131 top/U1457
*1132 top/U1458
*1133 top/U1459
*1134 top/U1460
*1135 top/U1466
*1136 top/U1467
*1137 top/U1468
*1138 top/U1469
*1139 top/U1470
*1140 top/U1471
*1141 top/U1472
*1142 top/U1473
*1143 top/U1474
*1144 top/U1475
*1145 top/U1476
*1146 top/U1477
*1147 top/U1478
*1148 top/U1479
*1149 top/U1480
*1150 top/U1483
*1151 top/U1485
*1152 top/U1486
*1153 top/U1487
*1154 top/U1488
*1155 top/U1489
*1156 top/ctmTdsLR_1_1013
*1157 top/U1491
*1158 top/U1495
*1159 top/ctmTdsLR_1_979
*1160 top/ctmTdsLR_2_980
*1161 top/U1498
*1162 top/U1500
*1163 top/U1501
*1164 top/U1502
*1165 top/U1503
*1166 top/U1504
*1167 top/U1505
*1168 top/U1507
*1169 top/U1508
*1170 top/U1509
*1171 top/U1510
*1172 top/U1511
*1173 top/U1513
*1174 top/U1514
*1175 top/U1515
*1176 top/U1516
*1177 top/U1517
*1178 top/U1518
*1179 top/U1519
*1180 top/U1520
*1181 top/U1523
*1182 top/U1524
*1183 top/U1525
*1184 top/U1526
*1185 top/U1527
*1186 top/U1528
*1187 top/U1529
*1188 top/U1530
*1189 top/U1531
*1190 top/U1532
*1191 top/U1533
*1192 top/U1534
*1193 top/U1535
*1194 top/U1536
*1195 top/ctmTdsLR_1_929
*1196 top/U1541
*1197 top/U1542
*1198 top/U1543
*1199 top/U1545
*1200 top/U1546
*1201 top/U1547
*1202 top/U1549
*1203 top/U1550
*1204 top/U1552
*1205 top/U1553
*1206 top/U1554
*1207 top/U1556
*1208 top/U1557
*1209 top/U1558
*1210 top/U1559
*1211 top/U1560
*1212 top/U1561
*1213 top/U1563
*1214 top/U1564
*1215 top/U1565
*1216 top/U1566
*1217 top/U1567
*1218 top/ctmTdsLR_1_987
*1219 top/U1570
*1220 top/ctmTdsLR_1_1038
*1221 top/ctmTdsLR_2_1039
*1222 top/U1576
*1223 top/U1579
*1224 top/U1580
*1225 top/U1581
*1226 top/U1582
*1227 top/U1583
*1228 top/U1588
*1229 top/U1590
*1230 top/U1591
*1231 top/U1592
*1232 top/U1593
*1233 top/U1594
*1234 top/U1595
*1235 top/U1599
*1236 top/U1600
*1237 top/U1601
*1238 top/U1602
*1239 top/U1603
*1240 top/U1605
*1241 top/U1608
*1242 top/U1609
*1243 top/U1610
*1244 top/U1614
*1245 top/U1615
*1246 top/U1616
*1247 top/U1618
*1248 top/U1620
*1249 top/U1621
*1250 top/U1622
*1251 top/U1623
*1252 top/U1627
*1253 top/U1628
*1254 top/U1630
*1255 top/ctmTdsLR_1_901
*1256 top/U1633
*1257 top/U1636
*1258 top/U1637
*1259 top/U1638
*1260 top/U1639
*1261 top/U1640
*1262 top/U1641
*1263 top/U1642
*1264 top/U1643
*1265 top/U1644
*1266 top/U1645
*1267 top/U1646
*1268 top/U1647
*1269 top/U1648
*1270 top/U1650
*1271 top/U1651
*1272 top/U1652
*1273 top/U1653
*1274 top/U1655
*1275 top/U1658
*1276 top/U1659
*1277 top/U1660
*1278 top/U1661
*1279 top/U1662
*1280 top/U1663
*1281 top/U1666
*1282 top/U1667
*1283 top/U1668
*1284 top/U1669
*1285 top/U1670
*1286 top/U1672
*1287 top/U1673
*1288 top/U1674
*1289 top/U1675
*1290 top/U1676
*1291 top/U1677
*1292 top/U1678
*1293 top/U1680
*1294 top/U1681
*1295 top/U1682
*1296 top/U1683
*1297 top/U1685
*1298 top/U1686
*1299 top/U1687
*1300 top/U1688
*1301 top/U1690
*1302 top/U1691
*1303 top/U1692
*1304 top/U1693
*1305 top/U1695
*1306 top/U1696
*1307 top/U1697
*1308 top/U1698
*1309 top/U1699
*1310 top/U1700
*1311 top/U1701
*1312 top/U1702
*1313 top/U1703
*1314 top/U1704
*1315 top/U1705
*1316 top/U1706
*1317 top/U1707
*1318 top/U1708
*1319 top/U1709
*1320 top/U1710
*1321 top/U1711
*1322 top/U1712
*1323 top/U1713
*1324 top/U1714
*1325 top/U1715
*1326 top/U1716
*1327 top/U1718
*1328 top/U1719
*1329 top/U1720
*1330 top/U1722
*1331 top/U1723
*1332 top/U1724
*1333 top/U1725
*1334 top/U1726
*1335 top/U1727
*1336 top/U1728
*1337 top/U1729
*1338 top/U1730
*1339 top/U1731
*1340 top/U1732
*1341 top/U1733
*1342 top/U1734
*1343 top/U1735
*1344 top/U1736
*1345 top/U1737
*1346 top/U1738
*1347 top/U1739
*1348 top/U1740
*1349 top/U1741
*1350 top/U1742
*1351 top/U1743
*1352 top/U1744
*1353 top/U1745
*1354 top/U1747
*1355 top/U1748
*1356 top/U1749
*1357 top/U1750
*1358 top/U1751
*1359 top/U1752
*1360 top/U1753
*1361 top/U1754
*1362 top/U1755
*1363 top/U1756
*1364 top/U1757
*1365 top/U1758
*1366 top/U1759
*1367 top/U1760
*1368 top/U1761
*1369 top/U1762
*1370 top/U1763
*1371 top/U1764
*1372 top/U1765
*1373 top/U1766
*1374 top/U1767
*1375 top/U1768
*1376 top/U1769
*1377 top/U1770
*1378 top/U1771
*1379 top/U1772
*1380 top/U1773
*1381 top/U1774
*1382 top/U1775
*1383 top/U1776
*1384 top/U1777
*1385 top/U1778
*1386 top/U1779
*1387 top/U1780
*1388 top/U1781
*1389 top/U1782
*1390 top/U1783
*1391 top/U1784
*1392 top/U1787
*1393 top/U1788
*1394 top/U1789
*1395 top/U1790
*1396 top/U1791
*1397 top/U1792
*1398 top/U1793
*1399 top/U1794
*1400 top/U1795
*1401 top/U1796
*1402 top/U1800
*1403 top/U1801
*1404 top/U1803
*1405 top/U1804
*1406 top/U1807
*1407 top/U1809
*1408 top/U1810
*1409 top/U1811
*1410 top/U1812
*1411 top/U1813
*1412 top/U1814
*1413 top/U1815
*1414 top/U1817
*1415 top/U1819
*1416 top/ctmTdsLR_1_909
*1417 top/ctmTdsLR_2_910
*1418 top/ctmTdsLR_3_911
*1419 top/U1824
*1420 top/U1825
*1421 top/U1826
*1422 top/U1827
*1423 top/U1828
*1424 top/U1829
*1425 top/U1831
*1426 top/U1832
*1427 top/U1833
*1428 top/ctmTdsLR_1_912
*1429 top/U1836
*1430 top/U1837
*1431 top/U1838
*1432 top/U1839
*1433 top/U1840
*1434 top/U1844
*1435 top/U1845
*1436 top/U1846
*1437 top/U1847
*1438 top/U1848
*1439 top/U1849
*1440 top/U1851
*1441 top/ctmTdsLR_1_1118
*1442 xofiller!FILL64!x2679200y2651200
*1443 top/U1853
*1444 top/U1854
*1445 xofiller!FILL64!x2858400y2651200
*1446 xofiller!FILL64!x3037600y2651200
*1447 xofiller!FILL64!x3216800y2651200
*1448 top/U1856
*1449 top/U1858
*1450 top/U1859
*1451 top/U1860
*1452 top/U1861
*1453 top/U1862
*1454 top/U1863
*1455 top/U1864
*1456 top/U1865
*1457 top/U1866
*1458 top/U1867
*1459 top/ctmTdsLR_1_926
*1460 top/ctmTdsLR_2_927
*1461 top/U1869
*1462 top/U1870
*1463 top/ctmTdsLR_1_928
*1464 top/U1872
*1465 top/U1877
*1466 top/U1878
*1467 top/U1879
*1468 top/U1880
*1469 top/U1881
*1470 top/U1882
*1471 top/U1887
*1472 top/U1889
*1473 top/U1891
*1474 top/U1893
*1475 top/U1894
*1476 top/U1896
*1477 top/U1897
*1478 top/U1898
*1479 top/U1899
*1480 top/U1901
*1481 top/U1903
*1482 top/U1906
*1483 top/U1907
*1484 top/U1908
*1485 top/U1909
*1486 top/U1910
*1487 top/U1911
*1488 top/U1913
*1489 top/U1914
*1490 top/U1915
*1491 top/U1916
*1492 top/U1917
*1493 top/U1918
*1494 top/U1921
*1495 top/U1927
*1496 top/U1928
*1497 top/U1930
*1498 top/U1932
*1499 top/U1934
*1500 top/U1935
*1501 top/U1936
*1502 top/U1937
*1503 top/U1940
*1504 top/U1941
*1505 top/U1942
*1506 top/U1943
*1507 top/U1945
*1508 top/U1946
*1509 top/U1947
*1510 top/U1948
*1511 top/U1949
*1512 top/U1951
*1513 top/U1953
*1514 top/U1955
*1515 top/U1956
*1516 top/U1957
*1517 top/U1959
*1518 top/U1960
*1519 top/U1963
*1520 top/U1964
*1521 top/U1966
*1522 xofiller!FILL64!x3396000y2651200
*1523 xofiller!FILL4!x3575200y2651200
*1524 top/U1969
*1525 top/U1970
*1526 top/U1972
*1527 top/U1976
*1528 top/U1977
*1529 top/U1979
*1530 top/U1980
*1531 top/U1984
*1532 top/U1986
*1533 top/U1987
*1534 top/U1988
*1535 top/U1989
*1536 top/U1990
*1537 top/U1994
*1538 top/U1995
*1539 top/U1996
*1540 top/U2018
*1541 top/U2019
*1542 top/U2020
*1543 xofiller!FILL16!x3628400y2651200
*1544 xofiller!FILL1!x3673200y2651200
*1545 top/U2022
*1546 top/U2024
*1547 top/U2025
*1548 top/U2026
*1549 top/U2027
*1550 top/U2029
*1551 top/U2002
*1552 top/X1_d_reg_6_
*1553 top/X1_d_reg_0_
*1554 top/S9_reg_1_
*1555 top/Xt_reg_7_
*1556 top/Xt_reg_6_
*1557 top/Xt_reg_5_
*1558 top/Xt_reg_4_
*1559 top/Xt_reg_1_
*1560 top/Xt_reg_0_
*1561 top/U1992
*1562 top/U1950
*1563 top/U1944
*1564 top/U1961
*1565 top/U1958
*1566 top/U1965
*1567 top/U1971
*1568 top/U1973
*1569 top/U1978
*1570 top/U1975
*1571 top/U1983
*1572 top/U1982
*1573 top/U1387
*1574 top/U1998
*1575 top/U15
*1576 top/U152
*1577 top/U2023
*1578 top/U1997
*1579 top/U1993
*1580 top/U2030
*1581 top/U451
*1582 top/U75
*1583 top/U66
*1584 top/U1830
*1585 top/ctmTdsLR_1_920
*1586 top/ctmTdsLR_2_921
*1587 top/U447
*1588 top/U1631
*1589 top/U865
*1590 top/U864
*1591 top/U861
*1592 top/U1617
*1593 top/U337
*1594 top/U340
*1595 top/U727
*1596 top/U723
*1597 top/U708
*1598 top/U670
*1599 top/U666
*1600 top/U654
*1601 top/U650
*1602 top/U591
*1603 top/U623
*1604 top/U653
*1605 top/U647
*1606 top/U833
*1607 top/U828
*1608 top/U374
*1609 top/ctmTdsLR_1_970
*1610 top/U789
*1611 top/U810
*1612 top/ctmTdsLR_1_937
*1613 top/ctmTdsLR_2_938
*1614 top/U257
*1615 top/U1139
*1616 top/U1142
*1617 top/U1071
*1618 top/U981
*1619 top/U975
*1620 top/U1034
*1621 top/U1009
*1622 top/U1521
*1623 top/ctmTdsLR_2_971
*1624 top/U1396
*1625 top/ctmTdsLR_1_973
*1626 top/ctmTdsLR_2_974
*1627 top/ctmTdsLR_1_982
*1628 top/ctmTdsLR_2_983
*1629 top/ctmTdsLR_3_922
*1630 top/U1392
*1631 top/U1232
*1632 top/U496
*1633 top/U488
*1634 top/U485
*1635 top/U577
*1636 top/U587
*1637 top/U418
*1638 top/U320
*1639 top/U293
*1640 top/U290
*1641 top/U391
*1642 top/U331
*1643 top/U898
*1644 top/U1125
*1645 top/U1128
*1646 top/U1131
*1647 top/U1428
*1648 top/U1189
*1649 top/U1405
*1650 top/U475
*1651 top/U458
*1652 top/U562
*1653 top/U547
*1654 top/U711
*1655 top/U544
*1656 top/U491
*1657 top/U489
*1658 top/U582
*1659 top/U614
*1660 top/U265
*1661 top/U163
*1662 top/U145
*1663 top/U1020
*1664 top/U1027
*1665 top/U1303
*1666 top/U1300
*1667 top/U1309
*1668 top/U395
*1669 top/U1133
*1670 top/U1259
*1671 top/U687
*1672 top/U686
*1673 top/U527
*1674 top/U526
*1675 top/U1349
*1676 top/U894
*1677 top/U877
*1678 top/ctmTdsLR_4_923
*1679 top/U1212
*1680 top/U1234
*1681 top/U456
*1682 top/U141
*1683 top/U236
*1684 top/U142
*1685 top/U171
*1686 top/U176
*1687 top/U160
*1688 top/U157
*1689 top/U154
*1690 top/U1135
*1691 top/U1279
*1692 top/U1282
*1693 top/U927
*1694 top/U942
*1695 top/U941
*1696 top/U924
*1697 top/U911
*1698 top/U902
*1699 top/U937
*1700 top/U558
*1701 top/U1182
*1702 top/U1177
*1703 top/ctmTdsLR_1_900
*1704 top/U1611
*1705 top/S9_reg_2_
*1706 top/U1665
*1707 top/U1613
*1708 top/U1873
*1709 top/U1512
*1710 top/U1985
*1711 top/X9_reg_3_
*1712 top/ctmTdsLR_1_1107
*1713 top/ctmTdsLR_2_1037
*1714 top/U1834
*1715 top/X9_reg_5_
*1716 top/U1842
*1717 top/U450
*1718 top/ctmTdsLR_2_902
*1719 top/U1806
*1720 top/U1657
*1721 top/U1656
*1722 top/X9_reg_6_
*1723 top/Xt_reg_3_
*1724 top/X9_reg_7_
*1725 top/U1841
*1726 top/X9_reg_4_
*1727 top/Xt_reg_2_
*1728 top/U318
*1729 top/U446
*1730 top/ctmTdsLR_3_1040
*1731 top/ctmTdsLR_1_918
*1732 top/U938
*1733 top/U890
*1734 top/U471
*1735 top/U147
*1736 top/U926
*1737 top/U454
*1738 top/U1281
*1739 top/U159
*1740 top/U1203